McPAT (version 1.3 of Feb, 2015) is computing the target processor...
 
The value of homogeneous_L3s or number_of_L3s is not correct!